Version 4
SHEET 1 1624 1400
WIRE 96 48 -208 48
WIRE 768 48 176 48
WIRE -208 128 -208 48
WIRE -176 128 -208 128
WIRE -64 128 -96 128
WIRE -32 128 -64 128
WIRE 256 144 224 144
WIRE 352 144 320 144
WIRE 384 144 352 144
WIRE 672 160 640 160
WIRE 768 160 768 48
WIRE 768 160 736 160
WIRE 800 160 768 160
WIRE -320 224 -352 224
WIRE -208 224 -208 128
WIRE -208 224 -240 224
WIRE -176 224 -208 224
WIRE -64 240 -64 128
WIRE -64 240 -112 240
WIRE -32 240 -64 240
WIRE 224 240 224 144
WIRE 224 240 192 240
WIRE 256 240 224 240
WIRE -176 256 -208 256
WIRE 352 256 352 144
WIRE 352 256 320 256
WIRE 384 256 352 256
WIRE 640 256 640 160
WIRE 640 256 608 256
WIRE 672 256 640 256
WIRE 256 272 224 272
WIRE 768 272 768 160
WIRE 768 272 736 272
WIRE 672 288 640 288
WIRE 224 304 224 272
WIRE 640 320 640 288
WIRE -464 400 -496 400
WIRE -208 400 -208 256
WIRE -208 400 -240 400
WIRE -176 400 -208 400
WIRE -64 400 -96 400
WIRE 352 400 352 256
WIRE 352 400 16 400
WIRE -352 496 -352 464
WIRE 80 496 80 304
WIRE 288 496 80 496
WIRE 496 496 496 320
WIRE 496 496 288 496
WIRE 288 560 288 496
FLAG -352 224 SIGNAL
IOPIN -352 224 In
FLAG 224 304 VGND
IOPIN 224 304 In
FLAG 640 320 VGND
IOPIN 640 320 In
FLAG -32 128 HIGH
IOPIN -32 128 Out
FLAG 384 144 BAND
IOPIN 384 144 Out
FLAG 800 160 LOW
IOPIN 800 160 Out
FLAG -496 400 VGND
IOPIN -496 400 In
FLAG -352 496 RESON
IOPIN -352 496 In
FLAG 288 560 CUTOFF
IOPIN 288 560 In
SYMBOL cap 320 128 R90
WINDOW 0 0 32 VBottom 2
WINDOW 3 32 32 VTop 2
SYMATTR InstName C1
SYMATTR Value 0.5µ
SYMBOL cap 736 144 R90
WINDOW 0 0 32 VBottom 2
WINDOW 3 32 32 VTop 2
SYMATTR InstName C2
SYMATTR Value 0.5µ
SYMBOL res -80 112 R90
WINDOW 0 0 56 VBottom 2
WINDOW 3 32 56 VTop 2
SYMATTR InstName R3
SYMATTR Value 100K
SYMBOL res 192 32 R90
WINDOW 0 0 56 VBottom 2
WINDOW 3 32 56 VTop 2
SYMATTR InstName R2
SYMATTR Value 100K
SYMBOL res -224 208 R90
WINDOW 0 0 56 VBottom 2
WINDOW 3 32 56 VTop 2
SYMATTR InstName R1
SYMATTR Value 100K
SYMBOL opamp -144 240 R0
SYMATTR InstName X4
SYMBOL opamp 288 256 R0
SYMATTR InstName X5
SYMBOL opamp 704 272 R0
SYMATTR InstName X6
SYMBOL res -80 384 R90
WINDOW 0 0 56 VBottom 2
WINDOW 3 32 56 VTop 2
SYMATTR InstName R4
SYMATTR Value 1K
SYMBOL jfet_1k_100 -352 400 M0
SYMATTR InstName X1
SYMBOL jfet_1k_100 80 240 R0
SYMATTR InstName X2
SYMBOL jfet_1k_100 496 256 R0
SYMATTR InstName X3
SYMBOL res 32 384 R90
WINDOW 0 0 56 VBottom 2
WINDOW 3 32 56 VTop 2
SYMATTR InstName R5
SYMATTR Value 390
TEXT -640 -152 Left 2 ;Gain(low) = -R2/R1
TEXT -648 -112 Left 2 ;Gain(high) = -R3/R1
TEXT -648 -56 Left 2 ;If R2=R3 R(X2)=R(X3) C1=C2:
TEXT -592 -16 Left 2 ;Fcenter = 1/(2*PI*R(X2)*C1)
TEXT -592 24 Left 2 ;Q = (R4+R5)/(R(X1)*2)
TEXT -648 80 Left 2 ;Qmin = 0.707
TEXT -656 112 Left 2 ;Qmax = 7
TEXT -472 80 Left 2 ;R(X1) = 1K
TEXT -472 112 Left 2 ;R(X1) = 100
