Version 4
SHEET 1 880 680
WIRE 128 16 96 16
WIRE 240 16 208 16
WIRE 320 64 288 64
WIRE 432 64 400 64
WIRE 128 112 96 112
WIRE 240 112 240 16
WIRE 240 112 208 112
WIRE 240 160 240 112
WIRE 288 160 288 64
WIRE 288 160 240 160
WIRE 320 160 288 160
WIRE 432 176 432 64
WIRE 432 176 384 176
WIRE 464 176 432 176
WIRE 320 192 288 192
WIRE 128 208 96 208
WIRE 240 208 240 160
WIRE 240 208 208 208
WIRE 288 224 288 192
WIRE 128 304 96 304
WIRE 240 304 240 208
WIRE 240 304 208 304
FLAG 96 16 SIGNAL1
IOPIN 96 16 In
FLAG 96 112 SIGNAL2
IOPIN 96 112 In
FLAG 96 208 SIGNAL3
IOPIN 96 208 In
FLAG 96 304 SIGNAL4
IOPIN 96 304 In
FLAG 288 224 VGND
FLAG 464 176 OUT
IOPIN 464 176 Out
SYMBOL res 224 0 R90
WINDOW 0 0 56 VBottom 2
WINDOW 3 32 56 VTop 2
SYMATTR InstName R1
SYMATTR Value 100K
SYMBOL res 224 96 R90
WINDOW 0 0 56 VBottom 2
WINDOW 3 32 56 VTop 2
SYMATTR InstName R2
SYMATTR Value 100K
SYMBOL res 224 192 R90
WINDOW 0 0 56 VBottom 2
WINDOW 3 32 56 VTop 2
SYMATTR InstName R3
SYMATTR Value 100K
SYMBOL res 224 288 R90
WINDOW 0 0 56 VBottom 2
WINDOW 3 32 56 VTop 2
SYMATTR InstName R4
SYMATTR Value 100K
SYMBOL opamp 352 176 R0
SYMATTR InstName X1
SYMBOL res 416 48 R90
WINDOW 0 0 56 VBottom 2
WINDOW 3 32 56 VTop 2
SYMATTR InstName R5
SYMATTR Value 300K
