Version 4
SHEET 1 912 680
WIRE -240 16 -240 -16
WIRE -144 16 -144 -16
WIRE 160 16 128 16
WIRE 272 16 240 16
WIRE -16 32 -16 0
WIRE 448 32 416 32
WIRE 560 32 528 32
WIRE -240 144 -240 96
WIRE -144 144 -144 96
WIRE -112 144 -144 144
WIRE -16 144 -16 112
WIRE -16 144 -48 144
WIRE 128 144 128 16
WIRE 128 144 -16 144
WIRE 160 144 128 144
WIRE 272 160 272 16
WIRE 272 160 224 160
WIRE 304 160 272 160
WIRE 416 160 416 32
WIRE 416 160 384 160
WIRE 448 160 416 160
WIRE -16 176 -16 144
WIRE 160 176 128 176
WIRE 560 176 560 32
WIRE 560 176 512 176
WIRE 592 176 560 176
WIRE -144 192 -144 144
WIRE 448 192 416 192
WIRE 128 208 128 176
WIRE 416 224 416 192
WIRE -240 240 -240 208
WIRE -208 240 -240 240
WIRE -16 288 -16 256
WIRE -144 320 -144 288
FLAG -240 -16 VCC
FLAG -16 288 0
FLAG -16 0 VCC
FLAG 128 208 VCC/2
FLAG -144 320 0
FLAG -144 -16 VCC
FLAG 416 224 VCC/2
FLAG 592 176 OUT
IOPIN 592 176 Out
SYMBOL zener -224 208 R180
WINDOW 0 24 64 Left 2
WINDOW 3 24 0 Left 2
SYMATTR InstName D1
SYMATTR Value 1N750
SYMBOL res -224 112 R180
WINDOW 0 36 76 Left 2
WINDOW 3 36 40 Left 2
SYMATTR InstName R1
SYMATTR Value 82K
SYMBOL cap -48 128 R90
WINDOW 0 0 32 VBottom 2
WINDOW 3 32 32 VTop 2
SYMATTR InstName C1
SYMATTR Value 100n
SYMBOL res -32 160 R0
SYMATTR InstName R4
SYMATTR Value 100K
SYMBOL res -32 16 R0
SYMATTR InstName R3
SYMATTR Value 100K
SYMBOL res 256 0 R90
WINDOW 0 0 56 VBottom 2
WINDOW 3 32 56 VTop 2
SYMATTR InstName R5
SYMATTR Value 100K
SYMBOL npn -208 192 R0
SYMATTR InstName Q1
SYMATTR Value 2N3904
SYMBOL res -160 0 R0
SYMATTR InstName R2
SYMATTR Value 1K
SYMBOL res 400 144 R90
WINDOW 0 0 56 VBottom 2
WINDOW 3 32 56 VTop 2
SYMATTR InstName R6
SYMATTR Value 2.2K
SYMBOL res 544 16 R90
WINDOW 0 0 56 VBottom 2
WINDOW 3 32 56 VTop 2
SYMATTR InstName R7
SYMATTR Value 100K
SYMBOL opamp 192 160 R0
SYMATTR InstName X1
SYMBOL opamp 480 176 R0
SYMATTR InstName X2
TEXT -240 376 Left 2 ;No diode model with noise, test is non-functional\nParameters from prototype with LM385BLPE3-1-2
