Version 4
SHEET 1 1312 680
WIRE -1344 -544 -1376 -544
WIRE -1232 -544 -1264 -544
WIRE -1200 -544 -1232 -544
WIRE -1088 -544 -1120 -544
WIRE -768 -544 -1088 -544
WIRE -640 -544 -768 -544
WIRE -640 -480 -640 -544
WIRE -640 -480 -672 -480
WIRE -768 -464 -768 -544
WIRE -736 -464 -768 -464
WIRE -640 -448 -672 -448
WIRE -608 -448 -640 -448
WIRE -496 -448 -528 -448
WIRE -1232 -432 -1232 -544
WIRE -1232 -432 -1264 -432
WIRE -1376 -416 -1376 -544
WIRE -1376 -416 -1408 -416
WIRE -1328 -416 -1376 -416
WIRE -640 -416 -640 -448
WIRE -1232 -400 -1264 -400
WIRE -1200 -400 -1232 -400
WIRE -1088 -400 -1088 -544
WIRE -1088 -400 -1120 -400
WIRE -992 -384 -1024 -384
WIRE -400 -352 -400 -384
WIRE -1232 -336 -1232 -400
WIRE -640 -304 -640 -336
WIRE -640 -304 -912 -304
WIRE -608 -304 -640 -304
WIRE -1136 -288 -1168 -288
WIRE -1024 -288 -1024 -384
WIRE -1024 -288 -1056 -288
WIRE -976 -288 -1024 -288
WIRE -880 -272 -912 -272
WIRE -400 -240 -400 -272
WIRE -368 -240 -400 -240
WIRE -256 -240 -288 -240
WIRE -1232 -208 -1232 -240
WIRE -256 -208 -256 -240
WIRE -1024 -192 -1024 -288
WIRE -992 -192 -1024 -192
WIRE -880 -192 -880 -272
WIRE -880 -192 -912 -192
WIRE -848 -192 -880 -192
WIRE -736 -192 -768 -192
WIRE -400 -176 -400 -240
WIRE -400 -176 -432 -176
WIRE -1024 -160 -1024 -192
WIRE -608 -160 -720 -160
WIRE -496 -160 -528 -160
WIRE -400 -144 -432 -144
WIRE -272 -144 -400 -144
WIRE -240 -144 -272 -144
WIRE -144 -144 -176 -144
WIRE -720 -128 -720 -160
WIRE -400 -112 -400 -144
WIRE -272 -80 -272 -144
WIRE -1024 -64 -1024 -80
WIRE -768 -64 -800 -64
WIRE -640 -64 -640 -304
WIRE -640 -64 -672 -64
WIRE -176 -32 -208 -32
WIRE -64 -32 -96 -32
WIRE -1040 -16 -1072 -16
WIRE -912 -16 -944 -16
WIRE -800 -16 -800 -64
WIRE -800 -16 -832 -16
WIRE -752 -16 -800 -16
WIRE -640 -16 -640 -64
WIRE -640 -16 -688 -16
WIRE -400 0 -400 -32
WIRE -1072 16 -1072 -16
WIRE -272 48 -272 16
WIRE -1056 112 -1088 112
WIRE -1024 112 -1056 112
WIRE -912 112 -944 112
WIRE -800 112 -800 -16
WIRE -800 112 -832 112
WIRE -768 112 -800 112
WIRE -640 128 -640 -16
WIRE -640 128 -704 128
WIRE -576 128 -640 128
WIRE -768 144 -800 144
WIRE -480 144 -512 144
WIRE -448 144 -480 144
WIRE -576 160 -608 160
WIRE -480 176 -480 144
WIRE -1056 224 -1056 112
WIRE -912 224 -1056 224
WIRE -800 224 -800 144
WIRE -800 224 -832 224
WIRE -800 256 -800 224
WIRE -608 288 -608 160
WIRE -480 288 -480 256
WIRE -480 288 -608 288
WIRE -608 320 -608 288
WIRE -480 320 -480 288
WIRE -800 368 -800 336
WIRE -608 432 -608 400
WIRE -480 432 -480 400
FLAG -736 -192 VCC/2
FLAG -1088 112 FREQ
IOPIN -1088 112 In
FLAG -480 432 DUTY
IOPIN -480 432 In
FLAG -800 368 0
FLAG -1072 16 0
FLAG -608 -304 TRI
IOPIN -608 -304 Out
FLAG -448 144 PULSE
IOPIN -448 144 Out
FLAG -608 432 VCC/2
FLAG -496 -448 VCC
FLAG -1408 -416 SAW
IOPIN -1408 -416 Out
FLAG -1232 -208 VCC/2_COMP
FLAG -992 -384 SYNC_OUT
IOPIN -992 -384 Out
FLAG -64 -32 SYNC_DIS
IOPIN -64 -32 In
FLAG -400 0 0
FLAG -144 -144 SYNC_IN
IOPIN -144 -144 In
FLAG -256 -208 0
FLAG -400 -384 VCC
FLAG -272 48 0
SYMBOL res -928 128 R270
WINDOW 0 32 56 VTop 2
WINDOW 3 0 56 VBottom 2
SYMATTR InstName R2
SYMATTR Value 56K
SYMBOL res -896 -208 R90
WINDOW 0 0 56 VBottom 2
WINDOW 3 32 56 VTop 2
SYMATTR InstName R6
SYMATTR Value 2.2K
SYMBOL res -752 -208 R90
WINDOW 0 0 56 VBottom 2
WINDOW 3 32 56 VTop 2
SYMATTR InstName R7
SYMATTR Value 100K
SYMBOL res -816 -32 R90
WINDOW 0 0 56 VBottom 2
WINDOW 3 32 56 VTop 2
SYMATTR InstName R3
SYMATTR Value 56K
SYMBOL cap -688 -32 R90
WINDOW 0 0 32 VBottom 2
WINDOW 3 32 32 VTop 2
SYMATTR InstName C1
SYMATTR Value 1n
SYMBOL res -816 240 R0
SYMATTR InstName R5
SYMATTR Value 100K
SYMBOL res -928 240 R270
WINDOW 0 32 56 VTop 2
WINDOW 3 0 56 VBottom 2
SYMATTR InstName R4
SYMATTR Value 100K
SYMBOL nmos -944 -64 R90
WINDOW 0 68 33 VRight 2
WINDOW 3 95 6 VRight 2
SYMATTR InstName M1
SYMATTR Value 2N7002
SYMBOL res -496 304 R0
SYMATTR InstName R21
SYMATTR Value 4.7K
SYMBOL res -592 416 R180
WINDOW 0 36 76 Left 2
WINDOW 3 36 40 Left 2
SYMATTR InstName R20
SYMATTR Value 100K
SYMBOL res -1008 -64 R180
WINDOW 0 36 76 Left 2
WINDOW 3 36 40 Left 2
SYMATTR InstName R8
SYMATTR Value 4.7K
SYMBOL res -496 160 R0
SYMATTR InstName R22
SYMATTR Value 1Meg
SYMBOL res -1040 128 R270
WINDOW 0 32 56 VTop 2
WINDOW 3 0 56 VBottom 2
SYMATTR InstName R1
SYMATTR Value 56K
SYMBOL opamp -944 -288 M0
SYMATTR InstName X2
SYMBOL opamp -544 144 R0
SYMATTR InstName X6
SYMBOL opamp -736 128 R0
SYMATTR InstName X1
SYMBOL res -1248 -560 R90
WINDOW 0 0 56 VBottom 2
WINDOW 3 32 56 VTop 2
SYMATTR InstName R17
SYMATTR Value 100K
SYMBOL res -1104 -560 R90
WINDOW 0 0 56 VBottom 2
WINDOW 3 32 56 VTop 2
SYMATTR InstName R16
SYMATTR Value 100K
SYMBOL res -1104 -416 R90
WINDOW 0 0 56 VBottom 2
WINDOW 3 32 56 VTop 2
SYMATTR InstName R18
SYMATTR Value 10K
SYMBOL res -624 -320 R180
WINDOW 0 36 76 Left 2
WINDOW 3 36 40 Left 2
SYMATTR InstName R14
SYMATTR Value 100K
SYMBOL res -624 -432 R270
WINDOW 0 32 56 VTop 2
WINDOW 3 0 56 VBottom 2
SYMATTR InstName R15
SYMATTR Value 100K
SYMBOL opamp -704 -464 M0
SYMATTR InstName X4
SYMBOL opamp -1296 -416 M0
SYMATTR InstName X5
SYMBOL npn -1168 -336 M0
SYMATTR InstName Q3
SYMATTR Value 2N3904
SYMBOL res -1040 -304 R90
WINDOW 0 0 56 VBottom 2
WINDOW 3 32 56 VTop 2
SYMATTR InstName R19
SYMATTR Value 100K
SYMBOL npn -672 -128 R90
WINDOW 0 6 107 VRight 2
WINDOW 3 38 108 VRight 2
SYMATTR InstName Q1
SYMATTR Value 2N3904
SYMBOL res -512 -176 R90
WINDOW 0 0 56 VBottom 2
WINDOW 3 32 56 VTop 2
SYMATTR InstName R9
SYMATTR Value 100K
SYMBOL cap -176 -160 R90
WINDOW 0 0 32 VBottom 2
WINDOW 3 32 32 VTop 2
SYMATTR InstName C2
SYMATTR Value 1n
SYMBOL res -384 -16 R180
WINDOW 0 36 76 Left 2
WINDOW 3 36 40 Left 2
SYMATTR InstName R12
SYMATTR Value 4.7K
SYMBOL opamp -464 -160 M0
SYMATTR InstName X3
SYMBOL res -272 -256 R90
WINDOW 0 0 56 VBottom 2
WINDOW 3 32 56 VTop 2
SYMATTR InstName R11
SYMATTR Value 10K
SYMBOL res -384 -256 R180
WINDOW 0 36 76 Left 2
WINDOW 3 36 40 Left 2
SYMATTR InstName R10
SYMATTR Value 100K
SYMBOL res -80 -48 R90
WINDOW 0 0 56 VBottom 2
WINDOW 3 32 56 VTop 2
SYMATTR InstName R13
SYMATTR Value 100K
SYMBOL npn -208 -80 M0
SYMATTR InstName Q2
SYMATTR Value 2N3904
TEXT -1456 328 Left 2 ;F = FREQ / (8 * 56K * 1n * 3.3)
