Version 4
SHEET 1 1260 680
WIRE 64 0 32 0
WIRE 176 0 144 0
WIRE 208 0 176 0
WIRE 320 0 288 0
WIRE 176 160 176 0
WIRE 224 160 176 160
WIRE 320 176 320 0
WIRE 320 176 288 176
WIRE 352 176 320 176
WIRE -32 192 -64 192
WIRE 80 192 48 192
WIRE 192 192 160 192
WIRE 224 192 192 192
WIRE 192 256 192 192
WIRE 192 368 192 336
FLAG -64 192 VCC
FLAG 32 0 SIGNAL
IOPIN 32 0 In
FLAG 192 368 0
FLAG 352 176 OUT
IOPIN 352 176 Out
SYMBOL res 208 352 R180
WINDOW 0 36 76 Left 2
WINDOW 3 36 40 Left 2
SYMATTR InstName R5
SYMATTR Value 180K
SYMBOL res 64 208 R270
WINDOW 0 32 56 VTop 2
WINDOW 3 0 56 VBottom 2
SYMATTR InstName R4
SYMATTR Value 10K
SYMBOL res 304 -16 R90
WINDOW 0 0 56 VBottom 2
WINDOW 3 32 56 VTop 2
SYMATTR InstName R2
SYMATTR Value 10K
SYMBOL res 160 -16 R90
WINDOW 0 0 56 VBottom 2
WINDOW 3 32 56 VTop 2
SYMATTR InstName R1
SYMATTR Value 330K
SYMBOL res 64 176 R90
WINDOW 0 0 56 VBottom 2
WINDOW 3 32 56 VTop 2
SYMATTR InstName R3
SYMATTR Value 82K
SYMBOL opamp 256 176 R0
SYMATTR InstName X1
TEXT 520 0 Left 2 ;Shift/scale [0.0V, 3.3V] to [2.15V, 2.25V]
TEXT 520 40 Left 2 ;shift = 2.2 - 1.65 = 0.55
TEXT 520 80 Left 2 ;scale = 0.1 / 3.3 = 1/33
TEXT 520 120 Left 2 ;R2 / R1 = scale
TEXT 520 160 Left 2 ;(R3 + R4) / R5 =\n  1 - ((2 * shift) / ((1.65 * (1 + scale)) + shift))
