Version 4
SHEET 1 1148 712
WIRE 80 160 48 160
WIRE 336 176 304 176
WIRE 448 176 416 176
WIRE 80 192 48 192
WIRE 80 304 48 304
WIRE 336 320 304 320
WIRE 448 320 448 176
WIRE 448 320 416 320
WIRE 640 320 448 320
WIRE 80 336 48 336
WIRE 896 336 864 336
WIRE 640 352 608 352
WIRE 896 416 896 336
WIRE 944 416 896 416
WIRE 992 416 944 416
WIRE 944 448 944 416
WIRE 80 464 48 464
WIRE 336 480 304 480
WIRE 448 480 416 480
WIRE 640 480 448 480
WIRE 80 496 48 496
WIRE 896 496 896 416
WIRE 896 496 864 496
WIRE 640 512 608 512
WIRE 944 544 944 512
WIRE 80 608 48 608
WIRE 336 624 304 624
WIRE 448 624 448 480
WIRE 448 624 416 624
WIRE 80 640 48 640
FLAG 48 160 SIGNAL1
IOPIN 48 160 In
FLAG 48 304 SIGNAL2
IOPIN 48 304 In
FLAG 48 464 SIGNAL3
IOPIN 48 464 In
FLAG 48 608 SIGNAL4
IOPIN 48 608 In
FLAG 48 192 SELECT1
IOPIN 48 192 In
FLAG 48 336 SELECT1
IOPIN 48 336 In
FLAG 48 496 SELECT1
IOPIN 48 496 In
FLAG 48 640 SELECT1
IOPIN 48 640 In
FLAG 608 352 SELECT2
IOPIN 608 352 In
FLAG 608 512 SELECT2
IOPIN 608 512 In
FLAG 992 416 OUT
IOPIN 992 416 Out
FLAG 944 544 0
SYMBOL res 432 160 R90
WINDOW 0 0 56 VBottom 2
WINDOW 3 32 56 VTop 2
SYMATTR InstName R1
SYMATTR Value 470
SYMBOL res 432 304 R90
WINDOW 0 0 56 VBottom 2
WINDOW 3 32 56 VTop 2
SYMATTR InstName R2
SYMATTR Value 470
SYMBOL res 432 464 R90
WINDOW 0 0 56 VBottom 2
WINDOW 3 32 56 VTop 2
SYMATTR InstName R3
SYMATTR Value 470
SYMBOL res 432 608 R90
WINDOW 0 0 56 VBottom 2
WINDOW 3 32 56 VTop 2
SYMATTR InstName R4
SYMATTR Value 470
SYMBOL switch_off_3.3v 128 192 R0
SYMATTR InstName X1
SYMBOL switch_on_3.3v 128 336 R0
SYMATTR InstName X2
SYMBOL switch_off_3.3v 128 496 R0
SYMATTR InstName X3
SYMBOL switch_on_3.3v 128 640 R0
SYMATTR InstName X4
SYMBOL switch_off_3.3v 688 352 R0
SYMATTR InstName X5
SYMBOL switch_on_3.3v 688 512 R0
SYMATTR InstName X6
SYMBOL cap 928 448 R0
SYMATTR InstName C1
SYMATTR Value 1p
