Version 4
SHEET 1 1676 680
WIRE 848 -144 816 -144
WIRE 848 -112 848 -144
WIRE 592 -64 560 -64
WIRE 1136 -64 1104 -64
WIRE 592 -32 592 -64
WIRE 1104 -32 1104 -64
WIRE 848 0 848 -32
WIRE 848 0 736 0
WIRE 960 0 848 0
WIRE 592 64 592 48
WIRE 1104 64 1104 48
WIRE 544 80 400 80
WIRE 1296 80 1152 80
WIRE 736 144 736 0
WIRE 960 144 960 0
WIRE 288 192 256 192
WIRE 400 192 400 80
WIRE 400 192 368 192
WIRE 592 192 592 160
WIRE 720 192 592 192
WIRE 848 192 816 192
WIRE 880 192 848 192
WIRE 1104 192 1104 160
WIRE 1104 192 976 192
WIRE 1296 192 1296 80
WIRE 1328 192 1296 192
WIRE 1440 192 1408 192
WIRE 592 224 592 192
WIRE 1104 224 1104 192
WIRE 400 304 400 192
WIRE 544 304 400 304
WIRE 1296 304 1296 192
WIRE 1296 304 1152 304
WIRE 592 336 592 320
WIRE 1104 336 1104 320
WIRE 992 400 880 400
WIRE 592 448 592 416
WIRE 592 448 560 448
WIRE 1104 448 1104 416
WIRE 1136 448 1104 448
WIRE 880 464 880 400
WIRE 912 464 880 464
WIRE 992 480 992 400
WIRE 992 480 976 480
WIRE 1024 480 992 480
WIRE 752 496 720 496
WIRE 848 496 848 192
WIRE 848 496 816 496
WIRE 912 496 848 496
WIRE 720 528 720 496
FLAG 560 -64 SIGNAL1
IOPIN 560 -64 In
FLAG 560 448 SIGNAL2
IOPIN 560 448 In
FLAG 256 192 SELECT1
IOPIN 256 192 In
FLAG 816 -144 SELECT2
IOPIN 816 -144 In
FLAG 1024 480 OUT
IOPIN 1024 480 Out
FLAG 720 528 0
FLAG 1136 -64 SIGNAL3
IOPIN 1136 -64 In
FLAG 1136 448 SIGNAL4
IOPIN 1136 448 In
FLAG 1440 192 SELECT1
IOPIN 1440 192 In
SYMBOL nmos 544 224 R0
SYMATTR InstName M1
SYMATTR Value AO6408
SYMBOL pmos 544 160 M180
SYMATTR InstName M2
SYMATTR Value AO6407
SYMBOL cap 816 480 R90
WINDOW 0 0 32 VBottom 2
WINDOW 3 32 32 VTop 2
SYMATTR InstName C1
SYMATTR Value 10n
SYMBOL res 576 -48 R0
SYMATTR InstName R9
SYMATTR Value 470
SYMBOL res 576 320 R0
SYMATTR InstName R10
SYMATTR Value 470
SYMBOL pmos 816 144 R90
WINDOW 0 71 63 VLeft 2
WINDOW 3 104 88 VLeft 2
SYMATTR InstName M4
SYMATTR Value AO6407
SYMBOL nmos 880 144 M90
WINDOW 0 74 30 VRight 2
WINDOW 3 108 5 VRight 2
SYMATTR InstName M3
SYMATTR Value AO6408
SYMBOL nmos 1152 224 M0
SYMATTR InstName M5
SYMATTR Value AO6408
SYMBOL pmos 1152 160 R180
SYMATTR InstName M6
SYMATTR Value AO6407
SYMBOL res 1120 64 R180
WINDOW 0 36 76 Left 2
WINDOW 3 36 40 Left 2
SYMATTR InstName R6
SYMATTR Value 470
SYMBOL res 1120 432 R180
WINDOW 0 36 76 Left 2
WINDOW 3 36 40 Left 2
SYMATTR InstName R11
SYMATTR Value 370
SYMBOL opamp 944 480 R0
WINDOW 0 9 -34 Left 2
SYMATTR InstName X1
SYMBOL res 384 176 R90
WINDOW 0 0 56 VBottom 2
WINDOW 3 32 56 VTop 2
SYMATTR InstName R1
SYMATTR Value 4.7K
SYMBOL res 1424 176 R90
WINDOW 0 0 56 VBottom 2
WINDOW 3 32 56 VTop 2
SYMATTR InstName R2
SYMATTR Value 4.7K
SYMBOL res 832 -128 R0
SYMATTR InstName R3
SYMATTR Value 4.7K
