Version 4
SHEET 1 1676 680
WIRE 592 -64 560 -64
WIRE 592 -32 592 -64
WIRE 592 64 592 48
WIRE 544 80 400 80
WIRE 864 96 736 96
WIRE 736 160 736 96
WIRE 768 160 736 160
WIRE 864 176 864 96
WIRE 864 176 832 176
WIRE 896 176 864 176
WIRE 288 192 256 192
WIRE 400 192 400 80
WIRE 400 192 368 192
WIRE 592 192 592 160
WIRE 736 192 592 192
WIRE 768 192 736 192
WIRE 592 224 592 192
WIRE 736 224 736 192
WIRE 400 304 400 192
WIRE 544 304 400 304
WIRE 736 320 736 288
WIRE 592 336 592 320
WIRE 592 448 592 416
WIRE 592 448 560 448
FLAG 560 -64 SIGNAL1
IOPIN 560 -64 In
FLAG 560 448 SIGNAL2
IOPIN 560 448 In
FLAG 256 192 SELECT
IOPIN 256 192 In
FLAG 896 176 OUT
IOPIN 896 176 Out
FLAG 736 320 0
SYMBOL nmos 544 224 R0
SYMATTR InstName M1
SYMATTR Value AO6408
SYMBOL pmos 544 160 M180
SYMATTR InstName M2
SYMATTR Value AO6407
SYMBOL cap 720 288 M180
WINDOW 0 24 56 Left 2
WINDOW 3 24 8 Left 2
SYMATTR InstName C1
SYMATTR Value 10n
SYMBOL res 576 -48 R0
SYMATTR InstName R9
SYMATTR Value 470
SYMBOL res 576 320 R0
SYMATTR InstName R10
SYMATTR Value 470
SYMBOL opamp 800 176 R0
WINDOW 0 9 -34 Left 2
SYMATTR InstName X1
SYMBOL res 384 176 R90
WINDOW 0 0 56 VBottom 2
WINDOW 3 32 56 VTop 2
SYMATTR InstName R1
SYMATTR Value 4.7K
