Version 4
SHEET 1 1908 736
WIRE 640 320 640 288
WIRE 768 320 768 288
WIRE 896 320 896 288
WIRE 176 336 144 336
WIRE 400 336 368 336
WIRE 512 336 480 336
WIRE 176 368 144 368
WIRE 512 368 512 336
WIRE 640 432 640 400
WIRE 768 432 768 400
WIRE 896 432 896 400
FLAG 640 432 0
FLAG 640 288 VCC
FLAG 896 432 0
FLAG 896 288 SIGNAL
FLAG 512 368 0
FLAG 144 368 ON
FLAG 144 336 SIGNAL
FLAG 768 432 0
FLAG 768 288 ON
SYMBOL voltage 640 304 R0
WINDOW 123 0 0 Left 0
WINDOW 39 0 0 Left 0
SYMATTR InstName V1
SYMATTR Value 3.3
SYMBOL voltage 896 304 R0
WINDOW 123 0 0 Left 0
WINDOW 39 0 0 Left 0
SYMATTR InstName V7
SYMATTR Value PULSE(2.05 2.35 0 1.5m 1.5m 0u 3m)
SYMBOL line_driver 272 304 R0
SYMATTR InstName X1
SYMBOL res 496 320 R90
WINDOW 0 0 56 VBottom 2
WINDOW 3 32 56 VTop 2
SYMATTR InstName R1
SYMATTR Value 10K
SYMBOL voltage 768 304 R0
WINDOW 123 0 0 Left 0
WINDOW 39 0 0 Left 0
SYMATTR InstName V2
SYMATTR Value 3.3
TEXT 624 496 Left 2 !.tran 100m
TEXT 624 536 Left 2 !.global VCC
