Version 4
SHEET 1 2960 768
WIRE 1248 -16 1248 -48
WIRE 1376 -16 1376 -48
WIRE 1248 96 1248 64
WIRE 1376 96 1376 64
WIRE 752 160 720 160
WIRE 960 160 928 160
WIRE 1072 160 1040 160
WIRE 752 192 720 192
WIRE 1072 192 1072 160
WIRE 1248 272 1248 240
WIRE 1376 272 1376 240
WIRE 1248 384 1248 352
WIRE 1376 384 1376 352
FLAG 1248 384 0
FLAG 1248 240 VCC
FLAG 1376 96 0
FLAG 1376 -48 SIGNAL
FLAG 720 160 SIGNAL
FLAG 1072 192 0
FLAG 720 192 GAIN
FLAG 1248 96 0
FLAG 1248 -48 GAIN
FLAG 1376 384 0
FLAG 1376 240 VGND
SYMBOL voltage 1248 256 R0
WINDOW 123 0 0 Left 0
WINDOW 39 0 0 Left 0
SYMATTR InstName V1
SYMATTR Value 3.3
SYMBOL voltage 1376 -32 R0
WINDOW 123 24 124 Left 2
WINDOW 39 0 0 Left 0
SYMATTR InstName V2
SYMATTR Value SINE(2.2 50m 2k)
SYMBOL res 1056 144 R90
WINDOW 0 0 56 VBottom 2
WINDOW 3 32 56 VTop 2
SYMATTR InstName R2
SYMATTR Value 100K
SYMBOL voltage 1248 -32 R0
WINDOW 123 0 0 Left 0
WINDOW 39 0 0 Left 0
SYMATTR InstName V3
SYMATTR Value 3.3
SYMBOL voltage 1376 256 R0
WINDOW 123 0 0 Left 0
WINDOW 39 0 0 Left 0
SYMATTR InstName V6
SYMATTR Value 2.2
SYMBOL attenuator 832 144 R0
SYMATTR InstName X1
TEXT 1232 480 Left 2 !.global VCC VGND
TEXT 1232 520 Left 2 !.MODEL 2SK3557 NJF(BETA=0.026 VTO=-1.04 LAMBDA=0.038 RD=5.6 RS=6.5 IS=0.558f CGS=7.62p CGD=7.62p M=0.33 PB=0.6 FC=0.5 N=1.016 )
TEXT 1232 440 Left 2 !.tran 2m
