Version 4
SHEET 1 1908 768
WIRE 896 -64 896 -96
WIRE 1024 -64 1024 -96
WIRE 896 48 896 16
WIRE 1024 48 1024 16
WIRE 48 144 16 144
WIRE 48 176 16 176
WIRE 48 208 16 208
WIRE 288 224 256 224
WIRE 400 224 368 224
WIRE 48 240 16 240
WIRE 896 240 896 208
WIRE 1024 240 1024 208
WIRE 400 256 400 224
WIRE 48 272 16 272
WIRE 48 304 16 304
WIRE 896 352 896 320
WIRE 1024 352 1024 320
WIRE 768 528 768 496
WIRE 896 528 896 496
WIRE 1024 528 1024 496
WIRE 768 640 768 608
WIRE 896 640 896 608
WIRE 1024 640 1024 608
FLAG 400 256 0
FLAG 1024 640 0
FLAG 1024 496 VCC
FLAG 896 352 0
FLAG 896 208 SIGNAL1
FLAG 16 144 SIGNAL1
FLAG 16 176 SIGNAL2
FLAG 16 208 SIGNAL3
FLAG 16 240 SIGNAL4
FLAG 768 640 0
FLAG 768 496 SELECT1
FLAG 896 640 0
FLAG 896 496 SELECT2
FLAG 16 272 SELECT1
FLAG 16 304 SELECT2
FLAG 1024 352 0
FLAG 1024 208 SIGNAL2
FLAG 896 48 0
FLAG 896 -96 SIGNAL3
FLAG 1024 48 0
FLAG 1024 -96 SIGNAL4
SYMBOL res 384 208 R90
WINDOW 0 0 56 VBottom 2
WINDOW 3 32 56 VTop 2
SYMATTR InstName R1
SYMATTR Value 100K
SYMBOL voltage 1024 512 R0
WINDOW 123 0 0 Left 0
WINDOW 39 0 0 Left 0
SYMATTR InstName V1
SYMATTR Value 3.3
SYMBOL voltage 896 224 M0
WINDOW 123 0 0 Left 0
WINDOW 39 0 0 Left 0
SYMATTR InstName V2
SYMATTR Value PULSE(2.15 2.25 0 250u 250u 0 500u)
SYMBOL voltage 768 512 R0
WINDOW 123 0 0 Left 0
WINDOW 39 0 0 Left 0
SYMATTR InstName V3
SYMATTR Value 0
SYMBOL voltage 896 512 R0
WINDOW 123 0 0 Left 0
WINDOW 39 0 0 Left 0
SYMATTR InstName V4
SYMATTR Value 0
SYMBOL voltage 1024 224 R0
WINDOW 123 0 0 Left 0
WINDOW 39 0 0 Left 0
SYMATTR InstName V5
SYMATTR Value PULSE(2.15 2.25 0 1u 1u 250u 500u)
SYMBOL voltage 896 -80 M0
WINDOW 123 0 0 Left 0
WINDOW 39 0 0 Left 0
SYMATTR InstName V6
SYMATTR Value PULSE(2.15 2.25 0 500u 1u 0 500u)
SYMBOL voltage 1024 -80 R0
WINDOW 123 0 0 Left 0
WINDOW 39 0 0 Left 0
SYMATTR InstName V7
SYMATTR Value PULSE(2.15 2.25 0 1u 500u 0u 500u)
SYMBOL switch4_0.1v 80 144 R0
SYMATTR InstName X1
TEXT 504 592 Left 2 !.tran 2m
TEXT 504 640 Left 2 !.global VCC
