Version 4
SHEET 1 1908 736
WIRE 640 48 640 16
WIRE 768 48 768 16
WIRE 640 160 640 128
WIRE 768 160 768 128
WIRE 128 272 96 272
WIRE 368 288 336 288
WIRE 480 288 448 288
WIRE 128 304 96 304
WIRE 480 320 480 288
WIRE 640 320 640 288
WIRE 768 320 768 288
WIRE 640 432 640 400
WIRE 768 432 768 400
FLAG 640 432 0
FLAG 768 432 0
FLAG 640 288 VCC
FLAG 768 288 VGND
FLAG 768 160 0
FLAG 768 16 SIGNAL2
FLAG 640 16 SIGNAL1
FLAG 640 160 0
FLAG 480 320 0
FLAG 96 272 SIGNAL1
FLAG 96 304 SIGNAL2
SYMBOL voltage 640 304 R0
WINDOW 123 0 0 Left 0
WINDOW 39 0 0 Left 0
SYMATTR InstName V1
SYMATTR Value 3.3
SYMBOL voltage 768 304 R0
WINDOW 123 0 0 Left 0
WINDOW 39 0 0 Left 0
SYMATTR InstName V2
SYMATTR Value 2.2
SYMBOL voltage 768 32 R0
WINDOW 123 0 0 Left 0
WINDOW 39 0 0 Left 0
SYMATTR InstName V3
SYMATTR Value PULSE(2.15 2.25 0 20m 20m 0 40m)
SYMBOL voltage 640 32 M0
WINDOW 123 0 0 Left 0
WINDOW 39 0 0 Left 0
SYMATTR InstName V4
SYMATTR Value SINE(2.2 50m 2000)
SYMBOL ring_modulator 144 272 R0
SYMATTR InstName X1
SYMBOL res 464 272 R90
WINDOW 0 0 56 VBottom 2
WINDOW 3 32 56 VTop 2
SYMATTR InstName R1
SYMATTR Value 100K
TEXT 624 496 Left 2 !.tran 100m
TEXT 624 544 Left 2 !.global VCC VGND
