Version 4
SHEET 1 1908 768
WIRE 896 -64 896 -96
WIRE 1024 -64 1024 -96
WIRE 896 48 896 16
WIRE 1024 48 1024 16
WIRE 96 128 64 128
WIRE 96 160 64 160
WIRE 320 160 288 160
WIRE 432 160 400 160
WIRE 96 192 64 192
WIRE 432 192 432 160
WIRE 96 224 64 224
WIRE 896 240 896 208
WIRE 1024 240 1024 208
WIRE 896 352 896 320
WIRE 1024 352 1024 320
WIRE 896 528 896 496
WIRE 1040 528 1040 496
WIRE 896 640 896 608
WIRE 1040 640 1040 608
FLAG 432 192 0
FLAG 896 640 0
FLAG 896 496 VCC
FLAG 896 352 0
FLAG 896 208 SIGNAL1
FLAG 64 128 SIGNAL1
FLAG 64 160 SIGNAL2
FLAG 64 192 SIGNAL3
FLAG 64 224 SIGNAL4
FLAG 1024 352 0
FLAG 1024 208 SIGNAL2
FLAG 896 48 0
FLAG 896 -96 SIGNAL3
FLAG 1024 48 0
FLAG 1024 -96 SIGNAL4
FLAG 1040 640 0
FLAG 1040 496 VGND
SYMBOL res 416 144 R90
WINDOW 0 0 56 VBottom 2
WINDOW 3 32 56 VTop 2
SYMATTR InstName R1
SYMATTR Value 100K
SYMBOL voltage 896 512 R0
WINDOW 123 0 0 Left 0
WINDOW 39 0 0 Left 0
SYMATTR InstName V1
SYMATTR Value 3.3
SYMBOL voltage 896 224 M0
WINDOW 123 0 0 Left 0
WINDOW 39 0 0 Left 0
SYMATTR InstName V2
SYMATTR Value PULSE(2.15 2.25 0 250u 250u 0 500u)
SYMBOL voltage 1024 224 R0
WINDOW 123 0 0 Left 0
WINDOW 39 0 0 Left 0
SYMATTR InstName V5
SYMATTR Value PULSE(2.15 2.25 0 1u 1u 250u 500u)
SYMBOL voltage 896 -80 M0
WINDOW 123 0 0 Left 0
WINDOW 39 0 0 Left 0
SYMATTR InstName V6
SYMATTR Value PULSE(2.15 2.25 0 500u 1u 0 500u)
SYMBOL voltage 1024 -80 R0
WINDOW 123 0 0 Left 0
WINDOW 39 0 0 Left 0
SYMATTR InstName V7
SYMATTR Value PULSE(2.15 2.25 0 1u 500u 0u 500u)
SYMBOL mixer 192 192 R0
SYMATTR InstName X1
SYMBOL voltage 1040 512 R0
WINDOW 123 0 0 Left 0
WINDOW 39 0 0 Left 0
SYMATTR InstName V3
SYMATTR Value 2.2
TEXT 696 592 Left 2 !.tran 2m
TEXT 592 632 Left 2 !.global VCC VGND
