Version 4
SHEET 1 2960 768
WIRE 1248 -16 1248 -48
WIRE 1376 -16 1376 -48
WIRE 992 48 960 48
WIRE 1104 48 1072 48
WIRE 1104 80 1104 48
WIRE 1248 96 1248 64
WIRE 1376 96 1376 64
WIRE 736 128 704 128
WIRE 960 128 960 48
WIRE 960 128 928 128
WIRE 736 160 704 160
WIRE 992 160 928 160
WIRE 1104 160 1072 160
WIRE 736 192 704 192
WIRE 960 192 928 192
WIRE 1104 192 1104 160
WIRE 960 272 960 192
WIRE 992 272 960 272
WIRE 1104 272 1072 272
WIRE 1248 272 1248 240
WIRE 1376 272 1376 240
WIRE 1504 272 1504 240
WIRE 1648 272 1648 240
WIRE 1104 304 1104 272
WIRE 1248 384 1248 352
WIRE 1376 384 1376 352
WIRE 1504 384 1504 352
WIRE 1648 384 1648 352
FLAG 1248 384 0
FLAG 1248 240 VCC
FLAG 1648 384 0
FLAG 1648 240 SIGNAL
FLAG 704 128 SIGNAL
FLAG 1104 192 0
FLAG 704 160 CUTOFF
FLAG 704 192 RESON
FLAG 1104 80 0
FLAG 1104 304 0
FLAG 1248 96 0
FLAG 1248 -48 CUTOFF
FLAG 1376 96 0
FLAG 1376 -48 RESON
FLAG 1376 384 0
FLAG 1376 240 VCC/2
FLAG 1504 384 0
FLAG 1504 240 VGND
SYMBOL voltage 1248 256 R0
WINDOW 123 0 0 Left 0
WINDOW 39 0 0 Left 0
SYMATTR InstName V1
SYMATTR Value 3.3
SYMBOL voltage 1648 256 R0
WINDOW 123 24 124 Left 2
WINDOW 39 0 0 Left 0
SYMATTR Value2 AC 1
SYMATTR InstName V2
SYMATTR Value PULSE(2.15 2.25 0 1u 500u 0 500u)
SYMBOL res 1088 144 R90
WINDOW 0 0 56 VBottom 2
WINDOW 3 32 56 VTop 2
SYMATTR InstName R2
SYMATTR Value 100K
SYMBOL filter 832 160 R0
SYMATTR InstName X1
SYMBOL res 1088 32 R90
WINDOW 0 0 56 VBottom 2
WINDOW 3 32 56 VTop 2
SYMATTR InstName R1
SYMATTR Value 100K
SYMBOL res 1088 256 R90
WINDOW 0 0 56 VBottom 2
WINDOW 3 32 56 VTop 2
SYMATTR InstName R3
SYMATTR Value 100K
SYMBOL voltage 1248 -32 R0
WINDOW 123 0 0 Left 0
WINDOW 39 0 0 Left 0
SYMATTR InstName V3
SYMATTR Value 1
SYMBOL voltage 1376 -32 R0
WINDOW 123 0 0 Left 0
WINDOW 39 0 0 Left 0
SYMATTR InstName V4
SYMATTR Value 3.3
SYMBOL voltage 1376 256 R0
WINDOW 123 0 0 Left 0
WINDOW 39 0 0 Left 0
SYMATTR InstName V5
SYMATTR Value 1.65
SYMBOL voltage 1504 256 R0
WINDOW 123 0 0 Left 0
WINDOW 39 0 0 Left 0
SYMATTR InstName V6
SYMATTR Value 2.2
TEXT 1232 440 Left 2 !.ac dec 100 10 10K
TEXT 1232 480 Left 2 !.global VCC VCC/2 VGND
TEXT 1232 520 Left 2 !.MODEL 2SK3557 NJF(BETA=0.026 VTO=-1.04 LAMBDA=0.038 RD=5.6 RS=6.5 IS=0.558f CGS=7.62p CGD=7.62p M=0.33 PB=0.6 FC=0.5 N=1.016 )
