Version 4
SHEET 1 1908 768
WIRE 1040 240 1040 208
WIRE 1168 240 1168 208
WIRE 624 320 592 320
WIRE 832 320 800 320
WIRE 944 320 912 320
WIRE 944 352 944 320
WIRE 1040 352 1040 320
WIRE 1168 352 1168 320
FLAG 1040 352 0
FLAG 1040 208 VCC
FLAG 1168 352 0
FLAG 1168 208 SIGNAL
FLAG 592 320 SIGNAL
FLAG 944 352 0
SYMBOL voltage 1040 224 R0
WINDOW 123 0 0 Left 0
WINDOW 39 0 0 Left 0
SYMATTR InstName V1
SYMATTR Value 3.3
SYMBOL voltage 1168 224 R0
WINDOW 123 0 0 Left 0
WINDOW 39 0 0 Left 0
SYMATTR InstName V2
SYMATTR Value PULSE(0 3.3 0 250u 250u 0 500u)
SYMBOL shift_scale 688 272 R0
SYMATTR InstName X1
SYMBOL res 928 304 R90
WINDOW 0 0 56 VBottom 2
WINDOW 3 32 56 VTop 2
SYMATTR InstName R1
SYMATTR Value 100K
TEXT 1024 408 Left 2 !.tran 2m
TEXT 1024 456 Left 2 !.global VCC
