Version 4
SHEET 1 1908 768
WIRE 1024 240 1024 208
WIRE 320 288 288 288
WIRE 320 320 288 320
WIRE 560 320 528 320
WIRE 672 320 640 320
WIRE 320 352 288 352
WIRE 672 352 672 320
WIRE 1024 352 1024 320
WIRE 768 544 768 512
WIRE 896 544 896 512
WIRE 1024 544 1024 512
WIRE 768 656 768 624
WIRE 896 656 896 624
WIRE 1024 656 1024 624
FLAG 672 352 0
FLAG 768 656 0
FLAG 768 512 VCC
FLAG 1024 656 0
FLAG 1024 512 SIGNAL1
FLAG 288 288 SIGNAL1
FLAG 288 320 SIGNAL2
FLAG 896 656 0
FLAG 896 512 SELECT
FLAG 288 352 SELECT
FLAG 1024 352 0
FLAG 1024 208 SIGNAL2
SYMBOL res 656 304 R90
WINDOW 0 0 56 VBottom 2
WINDOW 3 32 56 VTop 2
SYMATTR InstName R1
SYMATTR Value 100K
SYMBOL voltage 768 528 R0
WINDOW 123 0 0 Left 0
WINDOW 39 0 0 Left 0
SYMATTR InstName V1
SYMATTR Value 3.3
SYMBOL voltage 1024 528 R0
WINDOW 123 0 0 Left 0
WINDOW 39 0 0 Left 0
SYMATTR InstName V2
SYMATTR Value PULSE(2.15 2.25 0 250u 250u 0 500u)
SYMBOL voltage 896 528 R0
WINDOW 123 0 0 Left 0
WINDOW 39 0 0 Left 0
SYMATTR InstName V3
SYMATTR Value 3.3
SYMBOL voltage 1024 224 R0
WINDOW 123 0 0 Left 0
WINDOW 39 0 0 Left 0
SYMATTR InstName V5
SYMATTR Value PULSE(2.15 2.25 0 1u 1u 250u 500u)
SYMBOL switch2_0.1v 352 288 R0
SYMATTR InstName X1
TEXT 784 304 Left 2 !.tran 2m
TEXT 784 352 Left 2 !.global VCC
