Version 4
SHEET 1 1908 736
WIRE 640 320 640 288
WIRE 768 320 768 288
WIRE 400 368 368 368
WIRE 512 368 480 368
WIRE 512 400 512 368
WIRE 640 432 640 400
WIRE 768 432 768 400
FLAG 640 432 0
FLAG 768 432 0
FLAG 640 288 VCC
FLAG 768 288 VCC/2
FLAG 512 400 0
SYMBOL voltage 640 304 R0
WINDOW 123 0 0 Left 0
WINDOW 39 0 0 Left 0
SYMATTR InstName V1
SYMATTR Value 3.3
SYMBOL voltage 768 304 R0
WINDOW 123 0 0 Left 0
WINDOW 39 0 0 Left 0
SYMATTR InstName V2
SYMATTR Value 1.65
SYMBOL noise 368 368 R0
SYMATTR InstName X1
SYMBOL res 496 352 R90
WINDOW 0 0 56 VBottom 2
WINDOW 3 32 56 VTop 2
SYMATTR InstName R1
SYMATTR Value 100K
TEXT 624 496 Left 2 !.tran 10m
TEXT 624 544 Left 2 !.global VCC VCC/2
