Version 4
SHEET 1 1908 736
WIRE 640 -32 640 -64
WIRE 768 -32 768 -64
WIRE 896 -32 896 -64
WIRE 1024 -32 1024 -64
WIRE 368 16 304 16
WIRE 480 16 448 16
WIRE 480 48 480 16
WIRE 640 80 640 48
WIRE 768 80 768 48
WIRE 896 80 896 48
WIRE 1024 80 1024 48
WIRE 368 144 336 144
WIRE 480 144 448 144
WIRE -16 160 -48 160
WIRE 304 160 304 16
WIRE 304 160 272 160
WIRE 480 176 480 144
WIRE -16 192 -48 192
WIRE 336 192 336 144
WIRE 336 192 272 192
WIRE -16 224 -48 224
WIRE 336 224 272 224
WIRE -16 256 -48 256
WIRE 304 256 272 256
WIRE 336 272 336 224
WIRE 368 272 336 272
WIRE 480 272 448 272
WIRE 480 304 480 272
WIRE 640 320 640 288
WIRE 768 320 768 288
WIRE 912 320 912 288
WIRE 304 400 304 256
WIRE 368 400 304 400
WIRE 480 400 448 400
WIRE 480 432 480 400
WIRE 640 432 640 400
WIRE 768 432 768 400
WIRE 912 432 912 400
FLAG 480 48 0
FLAG 480 176 0
FLAG 480 304 0
FLAG 640 432 0
FLAG 768 432 0
FLAG 912 432 0
FLAG 640 288 VCC
FLAG 768 288 VCC/2
FLAG 912 288 VCC/2_COMP
FLAG 480 432 0
FLAG -48 160 FREQ
FLAG -48 192 DUTY
FLAG -48 224 SYNC_DIS
FLAG 640 80 0
FLAG 640 -64 FREQ
FLAG 768 80 0
FLAG 768 -64 DUTY
FLAG 896 80 0
FLAG 896 -64 SYNC_DIS
FLAG 1024 80 0
FLAG 1024 -64 SYNC_IN
FLAG -48 256 SYNC_IN
SYMBOL oscillator 48 160 R0
WINDOW 0 -51 -65 Left 2
SYMATTR InstName X1
SYMBOL res 464 0 R90
WINDOW 0 0 56 VBottom 2
WINDOW 3 32 56 VTop 2
SYMATTR InstName R1
SYMATTR Value 100K
SYMBOL res 464 128 R90
WINDOW 0 0 56 VBottom 2
WINDOW 3 32 56 VTop 2
SYMATTR InstName R2
SYMATTR Value 100K
SYMBOL res 464 256 R90
WINDOW 0 0 56 VBottom 2
WINDOW 3 32 56 VTop 2
SYMATTR InstName R3
SYMATTR Value 100K
SYMBOL voltage 640 304 R0
WINDOW 123 0 0 Left 0
WINDOW 39 0 0 Left 0
SYMATTR InstName V1
SYMATTR Value 3.3
SYMBOL voltage 768 304 R0
WINDOW 123 0 0 Left 0
WINDOW 39 0 0 Left 0
SYMATTR InstName V2
SYMATTR Value 1.65
SYMBOL voltage 912 304 R0
WINDOW 123 0 0 Left 0
WINDOW 39 0 0 Left 0
SYMATTR InstName V3
SYMATTR Value 1.65
SYMBOL res 464 384 R90
WINDOW 0 0 56 VBottom 2
WINDOW 3 32 56 VTop 2
SYMATTR InstName R4
SYMATTR Value 100K
SYMBOL voltage 640 -48 R0
WINDOW 123 0 0 Left 0
WINDOW 39 0 0 Left 0
SYMATTR InstName V4
SYMATTR Value 3.3
SYMBOL voltage 768 -48 R0
WINDOW 123 0 0 Left 0
WINDOW 39 0 0 Left 0
SYMATTR InstName V5
SYMATTR Value 1.65
SYMBOL voltage 896 -48 R0
WINDOW 123 0 0 Left 0
WINDOW 39 0 0 Left 0
SYMATTR InstName V6
SYMATTR Value 0
SYMBOL voltage 1024 -48 R0
WINDOW 123 0 0 Left 0
WINDOW 39 0 0 Left 0
SYMATTR InstName V7
SYMATTR Value PULSE(0 3.3 0 1u 1u 150u 300u)
TEXT 624 496 Left 2 !.tran 10m
TEXT 624 544 Left 2 !.global VCC VCC/2 VCC/2_COMP
